docs/ieee8500/b0_plotting_data/05_B0_plotting_ready.csv
element_id,element_type,bus1,bus2,x1_plot,y1_plot,x2_plot,y2_plot,rho_line_max,phase_of_max_loading,is_critical_line,critical_interval,critical_timestamp,enabled,plot_enabled,loading_status,terminal_of_max_loading,conductor_label
Line.hvmv_sub_connector,LINE,_hvmv_sub_lsb,hvmv_sub_48332,1657962.03980939,12277577.7570982,1657928.03980939,12277577.7570982,0.7179012832635928,A,FALSE,31,2025-05-21T07:45:00+10:00,TRUE,TRUE,RESOLVED,1,t1_node1
Line.ln5502549-1,LINE,m1009763,l2673322,1689379.83980365,12281193.2184775,1689347.85823562,12281293.8203336,0.002462031214085072,B,FALSE,31,2025-05-21T07:45:00+10:00,TRUE,TRUE,RESOLVED,2,t2_node2
Line.ln6259988-1,LINE,m1069148,l2673309,1677545.91006463,12266091.5900475,1677897.71960096,12266089.1693115,0.0018219928844603456,C,FALSE,31,2025-05-21T07:45:00+10:00,TRUE,TRUE,RESOLVED,2,t2_node3
Line.ln6077796-1,LINE,m1069588,l2804270,1676829.36811196,12287113.040307,1676860.60830399,12287092.199859,0.0020995016883162704,B,FALSE,31,2025-05-21T07:45:00+10:00,TRUE,TRUE,RESOLVED,2,t2_node2
Line.ln5835135-2,LINE,m3036164,l2935553,1683385.95000607,12289757.0697495,1683474.98066215,12289885.9790616,0.02060069319238963,B,FALSE,31,2025-05-21T07:45:00+10:00,TRUE,TRUE,RESOLVED,2,t2_node2
Line.ln5896826-1,LINE,m1209749,l2748840,1659814.03932812,12273042.1702779,1659509.26006383,12272449.8804854,0.0010422177676532739,B,FALSE,31,2025-05-21T07:45:00+10:00,TRUE,TRUE,RESOLVED,2,t2_node2
Line.ln5714038-1,LINE,m1108264,m1108263,1672273.49789972,12260421.0589702,1672186.38826764,12260104.7699459,0.0027729206638526203,B,FALSE,31,2025-05-21T07:45:00+10:00,TRUE,TRUE,RESOLVED,2,t2_node2
Line.ln5653457-1,LINE,l3085398,m1026891,1688453.43109879,12285489.5210735,1688555.15116289,12285227.3688813,0.05647622195352523,B,FALSE,31,2025-05-21T07:45:00+10:00,TRUE,TRUE,RESOLVED,2,t2_node2
Line.ln5835173-1,LINE,l3216367,m1069468,1678302.76894534,12278909.6206514,1678236.24171328,12278791.4018993,0.08268354901528994,B,FALSE,31,2025-05-21T07:45:00+10:00,TRUE,TRUE,RESOLVED,2,t2_node2
Line.ln6321415-1,LINE,m1142800,m1142799,1665412.64874133,12272256.4509812,1665647.33725355,12272059.916709,0.0017538507669963104,B,FALSE,31,2025-05-21T07:45:00+10:00,TRUE,TRUE,RESOLVED,2,t2_node2
Line.ln5565092-1,LINE,m1047592,p827512,1683001.31922171,12283524.2602717,1682995.83877371,12283534.9303517,0.002746763333195003,C,FALSE,31,2025-05-21T07:45:00+10:00,TRUE,TRUE,RESOLVED,2,t2_node3
Line.ln6073648-1,LINE,m1047339,p895104,1680277.15153918,12264379.6013099,1680284.56939518,12264403.8864939,0.003847708166096054,A,FALSE,31,2025-05-21T07:45:00+10:00,TRUE,TRUE,RESOLVED,2,t2_node1
Line.ln5774457-1,LINE,m1026915,m1026920,1688274.17785062,12285876.8797939,1688233.88959459,12286004.691378,0.04435677498487119,A,FALSE,31,2025-05-21T07:45:00+10:00,TRUE,TRUE,RESOLVED,2,t2_node1
Line.ln5534966-3,LINE,n1138596,l3254207,1677939.74865700,12274484.2244233,1677864.91883293,12274513.4985353,0.013948352794074085,A,FALSE,31,2025-05-21T07:45:00+10:00,TRUE,TRUE,RESOLVED,2,t2_node1
Line.ln5859996-1,LINE,m1069464,p873787,1678079.63934513,12278609.6623791,1678080.51588913,12278589.2233391,0.0035189401177857633,B,FALSE,31,2025-05-21T07:45:00+10:00,TRUE,TRUE,RESOLVED,2,t2_node2
Line.ln6138610-2,LINE,n1144665,m1047515,1681840.91832463,12282252.9970385,1681922.89157271,12282216.1903825,0.15655258153083074,A,FALSE,31,2025-05-21T07:45:00+10:00,TRUE,TRUE,RESOLVED,2,t2_node1
Line.ln6258435-3,LINE,n1137002,m1047707,1681625.78002043,12285034.7176171,1681868.62776466,12285152.3997932,0.0031954888320041273,A,FALSE,31,2025-05-21T07:45:00+10:00,TRUE,TRUE,RESOLVED,2,t2_node1
Line.ln5804790-1,LINE,l2729406,l2897768,1674339.99953365,12277937.7504425,1673701.28158105,12277952.0618665,0.0018618760131267121,C,FALSE,31,2025-05-21T07:45:00+10:00,TRUE,TRUE,RESOLVED,2,t2_node3
Line.ln6900591-14,LINE,l3649301,l3649302,1683805.43365446,12284893.004209,1683804.43013446,12285099.8931692,0.005776918699573181,A,FALSE,31,2025-05-21T07:45:00+10:00,TRUE,TRUE,RESOLVED,2,t2_node1
Line.ln6409873-1,LINE,l2970842,m1089113,1674884.73886215,12268558.7337298,1674746.73643003,12268367.5119696,0.013357291851184675,B,FALSE,31,2025-05-21T07:45:00+10:00,TRUE,TRUE,RESOLVED,2,t2_node2
Line.ln6014135-1,LINE,m1047312,p893163,1681355.73893218,12263309.3083169,1681364.61496419,12263319.6097569,0.01205629994916416,A,FALSE,31,2025-05-21T07:45:00+10:00,TRUE,TRUE,RESOLVED,2,t2_node1
Line.ln6077784-1,LINE,l2822871,m1026872,1686480.87941695,12284492.3416806,1686606.70034507,12284644.3483367,0.09797246232941904,B,FALSE,31,2025-05-21T07:45:00+10:00,TRUE,TRUE,RESOLVED,2,t2_node2
Line.ln5744338-1,LINE,m1026312,l2973163,1686878.40031332,12258310.4106482,1687003.95090544,12258187.8091761,0.03358595308885057,B,FALSE,31,2025-05-21T07:45:00+10:00,TRUE,TRUE,RESOLVED,2,t2_node2
Line.ln6991381-4,LINE,l3728038,l3728039,1682194.94379696,12279615.9922361,1682400.93573315,12279773.8848442,0.006416031846097769,A,FALSE,31,2025-05-21T07:45:00+10:00,TRUE,TRUE,RESOLVED,2,t2_node1
Line.ln5774480-1,LINE,m1069567,m1069582,1676925.84939205,12286519.2595705,1676674.94071982,12286953.7919229,0.03962618611001473,B,FALSE,31,2025-05-21T07:45:00+10:00,TRUE,TRUE,RESOLVED,2,t2_node2
Line.ln5986938-3,LINE,n1140830,l3216351,1687082.60639351,12277883.8757544,1687057.44056949,12277870.1336744,0.0067753827882628855,A,FALSE,31,2025-05-21T07:45:00+10:00,TRUE,TRUE,RESOLVED,2,t2_node1
Line.ln5894230-1,LINE,l2952007,l2861158,1664602.58691658,12284312.6051044,1665017.55677296,12284325.7737444,0.0018199780555525043,C,FALSE,31,2025-05-21T07:45:00+10:00,TRUE,TRUE,RESOLVED,2,t2_node3
Line.ln5683858-3,LINE,n1140827,m1026726,1686200.41400869,12278455.280043,1686199.01317669,12278511.919531,0.005269594421891488,B,FALSE,31,2025-05-21T07:45:00+10:00,TRUE,TRUE,RESOLVED,2,t2_node2
Line.ln5920279-5,LINE,l2730106,n1142099,1670561.21834613,12280907.3791173,1670598.36906616,12280970.6705093,0.42033382315639345,A,FALSE,31,2025-05-21T07:45:00+10:00,TRUE,TRUE,RESOLVED,1,t1_node1
Line.ln6439600-1,LINE,m1026658,l3172805,1688584.42937091,12276549.5300252,1688375.97983472,12276268.3723929,0.0016196363955847518,A,FALSE,31,2025-05-21T07:45:00+10:00,TRUE,TRUE,RESOLVED,2,t2_node1
Line.ln5589097-1,LINE,p895112,l3048962,1666303.29527016,12276023.5667607,1666249.60080611,12276088.1688728,0.0024237755076843104,A,FALSE,31,2025-05-21T07:45:00+10:00,TRUE,TRUE,RESOLVED,2,t2_node1
Line.ln5651975-1,LINE,l2991914,m1047503,1682760.06072549,12281719.001518,1682858.36882158,12281655.632302,0.08052632072507057,A,FALSE,31,2025-05-21T07:45:00+10:00,TRUE,TRUE,RESOLVED,2,t2_node1
Line.ln5865236-1,LINE,m1047751,l2973154,1681007.75096386,12288000.0004359,1680987.70923584,12287978.0008198,0.0032000709229682432,A,FALSE,31,2025-05-21T07:45:00+10:00,TRUE,TRUE,RESOLVED,2,t2_node1
Line.ln5593232-1,LINE,l3010565,l2897775,1675631.73047885,12269540.1803867,1675235.49163048,12269464.5805146,0.001813717535216064,C,FALSE,31,2025-05-21T07:45:00+10:00,TRUE,TRUE,RESOLVED,2,t2_node3
Line.ln5740283-1,LINE,m1125955,m1125957,1668522.16810423,12277627.6504742,1668504.89117621,12277641.9004582,0.00218363776627001,C,FALSE,31,2025-05-21T07:45:00+10:00,TRUE,TRUE,RESOLVED,2,t2_node3
Line.ln6106559-1,LINE,m1069640,l2804269,1677805.87089687,12289009.6111888,1677736.00952081,12289268.351413,0.004901195335126144,B,FALSE,31,2025-05-21T07:45:00+10:00,TRUE,TRUE,RESOLVED,2,t2_node2
Line.ln5714056-3,LINE,m1026702,n1139551,1684961.36991154,12278175.7812907,1685350.17451990,12278010.8066986,0.06819866176620008,A,FALSE,31,2025-05-21T07:45:00+10:00,TRUE,TRUE,RESOLVED,2,t2_node1
Line.ln5985355-3,LINE,n1136355,l2783231,1676469.02251163,12285527.1469296,1676675.10865582,12285645.6196337,0.06919411453257691,B,FALSE,31,2025-05-21T07:45:00+10:00,TRUE,TRUE,RESOLVED,2,t2_node2
Line.ln5531956-1,LINE,l2748143,l3251854,1675911.70027111,12286396.3713784,1675911.70027111,12286616.3716346,0.0016047964688361634,A,FALSE,31,2025-05-21T07:45:00+10:00,TRUE,TRUE,RESOLVED,2,t2_node1
Line.ln5650048-1,LINE,m1069610,m1069600,1677008.12574413,12287986.7048199,1676853.51403199,12287859.8394117,0.0017540498578044988,B,FALSE,31,2025-05-21T07:45:00+10:00,TRUE,TRUE,RESOLVED,2,t2_node2
Line.ln6290203-1,LINE,m1069424,l2935549,1677867.11019293,12276991.3000096,1677936.61112100,12276709.0610333,0.07177410984995217,B,FALSE,31,2025-05-21T07:45:00+10:00,TRUE,TRUE,RESOLVED,2,t2_node2
Line.ln6134414-1,LINE,p895089,l3235242,1675451.66622268,12283389.8172636,1675473.51019070,12283192.5088474,0.0036136214722868446,C,FALSE,31,2025-05-21T07:45:00+10:00,TRUE,TRUE,RESOLVED,2,t2_node3
Line.ln6259998-2,LINE,m1026795,n1140522,1683630.58770230,12280738.2839491,1683671.26917434,12280738.5665731,0.002201704331660243,C,FALSE,31,2025-05-21T07:45:00+10:00,TRUE,TRUE,RESOLVED,2,t2_node3
Line.ln6078767-1,LINE,l3030199,m1125934,1667892.92829564,12273546.1707904,1667960.11907970,12273477.4481023,0.2104659610803597,C,FALSE,31,2025-05-21T07:45:00+10:00,TRUE,TRUE,RESOLVED,2,t2_node3
Line.ln6017300-1,LINE,m1069189,l2860487,1676367.95780754,12268159.0501454,1676523.60990368,12268398.2401616,0.0010897772980152716,C,FALSE,31,2025-05-21T07:45:00+10:00,TRUE,TRUE,RESOLVED,2,t2_node3
Line.ln8979257-2,LINE,221-312488,m1089183,1673150.56209254,12279597.547948,1673151.09047654,12279553.204652,0.003844520668143653,C,FALSE,31,2025-05-21T07:45:00+10:00,TRUE,TRUE,RESOLVED,2,t2_node3
Line.ln81048109-1,LINE,m1108464,l3102286,1671533.68247503,12280152.5477566,1671685.87345117,12279984.8902844,0.009674259661546765,B,FALSE,31,2025-05-21T07:45:00+10:00,TRUE,TRUE,RESOLVED,2,t2_node2
Line.293471,LINE,f739845,293471,1682094.89080487,12262514.7088921,1682094.89080487,12262515.7088921,0.0018183112009127619,C,FALSE,31,2025-05-21T07:45:00+10:00,TRUE,TRUE,RESOLVED,2,t2_node3
Line.ln5534965-2,LINE,p827499,n1139254,1678038.21240109,12276424.5160091,1678052.10603310,12276440.1545371,0.001604401916568536,A,FALSE,31,2025-05-21T07:45:00+10:00,TRUE,TRUE,RESOLVED,2,t2_node1
Line.ln5655683-1,LINE,m1026657,m1026656,1685099.44607167,12276478.3005851,1685088.70226366,12276461.7650331,0.025393039375845302,A,FALSE,31,2025-05-21T07:45:00+10:00,TRUE,TRUE,RESOLVED,2,t2_node1
Line.ln5686247-1,LINE,m1108299,m1108300,1670480.94903405,12270993.318308,1670458.71594603,12270995.038628,0.0024620454265061893,B,FALSE,31,2025-05-21T07:45:00+10:00,TRUE,TRUE,RESOLVED,2,t2_node2
Line.ln6048642-1,LINE,l3198355,l2805037,1669837.29949745,12271041.8886761,1669474.66832912,12271067.9801961,0.000004797418887066949,B,FALSE,31,2025-05-21T07:45:00+10:00,TRUE,TRUE,RESOLVED,1,t1_node2
Line.ln5928544-3,LINE,n1137994,m1069484,1678897.59416189,12279872.8646843,1678763.27812977,12280000.0004284,0.018405567413508024,C,FALSE,31,2025-05-21T07:45:00+10:00,TRUE,TRUE,RESOLVED,2,t2_node3
Line.ln6108172-1,LINE,l2860504,l2860493,1686833.68837728,12278329.3198509,1686849.26956130,12279012.3483315,0.003231826374899949,A,FALSE,31,2025-05-21T07:45:00+10:00,TRUE,TRUE,RESOLVED,2,t2_node1
Line.ln5532754-1,LINE,m1026783,m1026780,1683788.96363845,12280424.2026688,1683814.12946247,12280371.0816448,0.07460989177976213,A,FALSE,31,2025-05-21T07:45:00+10:00,TRUE,TRUE,RESOLVED,2,t2_node1
Line.ln5591834-1,LINE,p895111,l2895496,1667051.08560686,12276444.5249691,1667280.26909507,12276445.0943131,0.004740732752552433,C,FALSE,31,2025-05-21T07:45:00+10:00,TRUE,TRUE,RESOLVED,2,t2_node3
Line.ln6347196-2,LINE,n1140819,m1026700,1685870.60408839,12278103.5442346,1685954.83423246,12278130.2255787,0.03862430895743447,A,FALSE,31,2025-05-21T07:45:00+10:00,TRUE,TRUE,RESOLVED,2,t2_node1
Line.ln5532741-1,LINE,m1089173,l2935551,1674794.79889407,12277474.7304101,1674795.28631807,12277674.3940262,0.011320229346880909,C,FALSE,31,2025-05-21T07:45:00+10:00,TRUE,TRUE,RESOLVED,2,t2_node3
Line.ln5804803-1,LINE,m1026344,m1026364,1684450.68882306,12260734.9313545,1684862.14021545,12261536.7602192,0.0009697396984987039,A,FALSE,31,2025-05-21T07:45:00+10:00,TRUE,TRUE,RESOLVED,2,t2_node1
Line.ln6169248-1,LINE,l2879070,l3216345,1683407.63423009,12283697.1892959,1683677.29848634,12283811.72984,0.1501817011159734,A,FALSE,31,2025-05-21T07:45:00+10:00,TRUE,TRUE,RESOLVED,2,t2_node1
Line.ln5532786-2,LINE,m1069428,n1139257,1677805.00664087,12277235.0242978,1677854.58462492,12277256.5692579,0.002821465870913174,B,FALSE,31,2025-05-21T07:45:00+10:00,TRUE,TRUE,RESOLVED,2,t2_node2
Line.ln5744339-1,LINE,l2991919,m1026361,1684463.75096707,12261158.4700429,1684466.79839108,12261438.2800911,0.02053043847789528,A,FALSE,31,2025-05-21T07:45:00+10:00,TRUE,TRUE,RESOLVED,2,t2_node1
Line.ln5531255-3,LINE,n1147857,m1009742,1688940.06866724,12281228.5137096,1689012.81772331,12281064.2682054,0.021151477120043664,A,FALSE,31,2025-05-21T07:45:00+10:00,TRUE,TRUE,RESOLVED,2,t2_node1
Line.ln5926308-2,LINE,q14412,m1047325,1680620.01131550,12264023.3119015,1680620.01131550,12264021.3119015,0.060644592722265286,B,FALSE,31,2025-05-21T07:45:00+10:00,TRUE,TRUE,RESOLVED,2,t2_node2
Line.ln5683856-3,LINE,n1139263,l3048227,1678158.67985720,12278801.3797553,1678074.11793712,12278812.2587313,0.0016041470924192758,A,FALSE,31,2025-05-21T07:45:00+10:00,TRUE,TRUE,RESOLVED,2,t2_node1
Line.ln6171502-1,LINE,p827506,m1069469,1678208.53636925,12278794.9654193,1678185.59467323,12278797.9145393,0.0025620885091133605,A,FALSE,31,2025-05-21T07:45:00+10:00,TRUE,TRUE,RESOLVED,2,t2_node1
Line.ln5593228-1,LINE,m1027019,l2785522,1688454.48786679,12292569.7110321,1688256.36025061,12292571.0299441,0.0017693095427707651,B,FALSE,31,2025-05-21T07:45:00+10:00,TRUE,TRUE,RESOLVED,2,t2_node2
Line.ln6380800-1,LINE,l3216338,l2973146,1692127.06796621,12283815.981488,1692126.02758221,12283623.7889758,0.0017718550206298768,B,FALSE,31,2025-05-21T07:45:00+10:00,TRUE,TRUE,RESOLVED,2,t2_node2
Line.ln6199525-2,LINE,m3037452,l2973164,1684449.84095106,12262666.5394203,1684216.20920684,12262647.3087003,0.0006460319077648979,A,FALSE,31,2025-05-21T07:45:00+10:00,TRUE,TRUE,RESOLVED,2,t2_node1
Line.ln5772710-2,LINE,l3120376,m1026925,1684644.02002324,12285936.3004659,1684568.60856717,12286219.5183862,0.012818308515396991,A,FALSE,31,2025-05-21T07:45:00+10:00,TRUE,TRUE,RESOLVED,2,t2_node1
Line.ln8961760-1,LINE,m1047612,p828360,1681848.41400464,12283881.77144,1681860.37022865,12283868.823984,0.0116150799807725,C,FALSE,31,2025-05-21T07:45:00+10:00,TRUE,TRUE,RESOLVED,2,t2_node3
Line.ln6047556-1,LINE,m1089195,l3141393,1675515.69899074,12282743.058863,1675885.48177509,12282735.399343,0.0018087355565649286,C,FALSE,31,2025-05-21T07:45:00+10:00,TRUE,TRUE,RESOLVED,2,t2_node3
Line.ln6138603-1,LINE,m1026946,m1026940,1686942.17093738,12287436.3785473,1687078.14994551,12287037.079987,0.002816018005600446,B,FALSE,31,2025-05-21T07:45:00+10:00,TRUE,TRUE,RESOLVED,2,t2_node2
Line.ln6108139-1,LINE,m1047471,l3216349,1683076.77163778,12277443.289514,1683022.57336573,12277469.8725541,0.001069252228147809,B,FALSE,31,2025-05-21T07:45:00+10:00,TRUE,TRUE,RESOLVED,2,t2_node2
Line.ln6388581-2,LINE,m1047401,l2748132,1681496.57579631,12272009.429413,1681667.21106047,12271940.8214129,0.0009684368434925243,A,FALSE,31,2025-05-21T07:45:00+10:00,TRUE,TRUE,RESOLVED,2,t2_node1
Line.ln5774460-1,LINE,l3122820,l3141398,1684147.13016678,12274675.6509835,1684186.67295082,12274484.7937673,0.0009704679052404472,A,FALSE,31,2025-05-21T07:45:00+10:00,TRUE,TRUE,RESOLVED,2,t2_node1
Line.ln5624387-1,LINE,m1108360,l3048968,1671645.83914714,12274271.2406151,1671700.95901919,12274442.9817992,0.002774050158623193,C,FALSE,31,2025-05-21T07:45:00+10:00,TRUE,TRUE,RESOLVED,2,t2_node3
Line.ln6137087-1,LINE,l2801950,m1069224,1677594.88184068,12270999.056804,1677680.50052876,12271064.7812201,0.014540338939637344,C,FALSE,31,2025-05-21T07:45:00+10:00,TRUE,TRUE,RESOLVED,2,t2_node3
Line.ln6077809-1,LINE,l2766746,m1027073,1685617.68018415,12293191.2094007,1685632.56095216,12293553.369529,0.018487447927885783,C,FALSE,31,2025-05-21T07:45:00+10:00,TRUE,TRUE,RESOLVED,2,t2_node3
Line.ln6440079-1,LINE,l2895496,m1142873,1667280.26909507,12276445.0943131,1667446.14890323,12276444.0006811,0.0047413297405664205,C,FALSE,31,2025-05-21T07:45:00+10:00,TRUE,TRUE,RESOLVED,2,t2_node3
Line.ln5804794-1,LINE,m1069181,l2973151,1677841.60030491,12268069.2207693,1678086.50014514,12268104.8805453,0.014497026734234655,A,FALSE,31,2025-05-21T07:45:00+10:00,TRUE,TRUE,RESOLVED,2,t2_node1
Line.ln5654484-1,LINE,l3179682,l2786274,1670141.09162574,12271868.3385968,1670072.99152967,12271928.6603889,0.001833044646627105,C,FALSE,31,2025-05-21T07:45:00+10:00,TRUE,TRUE,RESOLVED,2,t2_node3
Line.ln5774465-1,LINE,l3066816,m1026667,1687214.08389764,12277333.7378979,1687459.70872987,12277019.9392416,0.0032288055973659986,A,FALSE,31,2025-05-21T07:45:00+10:00,TRUE,TRUE,RESOLVED,2,t2_node1
Line.ln5473349-1,LINE,m1108529,m1108532,1671307.52183482,12283208.2292954,1671367.43812288,12283263.3204955,0.3917328769194458,B,FALSE,31,2025-05-21T07:45:00+10:00,TRUE,TRUE,RESOLVED,1,t1_node2
Line.ln6169253-1,LINE,l2766723,l3122822,1687626.08825002,12278339.5803309,1687528.37816993,12278499.639723,0.0016152795324986871,A,FALSE,31,2025-05-21T07:45:00+10:00,TRUE,TRUE,RESOLVED,2,t2_node1
Line.ln6350536-1,LINE,l2673312,l3235247,1688010.42002638,12289424.9292052,1688218.64837857,12289860.7190296,0.00096958259292277,A,FALSE,31,2025-05-21T07:45:00+10:00,TRUE,TRUE,RESOLVED,2,t2_node1
Line.ln6048523-1,LINE,m1166391,l3254873,1662751.60041885,12283329.6388315,1663090.58947517,12283409.8180316,0.02622753111646477,C,FALSE,31,2025-05-21T07:45:00+10:00,TRUE,TRUE,RESOLVED,2,t2_node3
Line.ln5594152-1,LINE,l2861157,p901951,1660133.54780842,12281568.2318539,1660482.06006474,12281760.6987981,0.029123756823601004,C,FALSE,31,2025-05-21T07:45:00+10:00,TRUE,TRUE,RESOLVED,2,t2_node3
Line.ln5865248-1,LINE,m1047346,m1047345,1679847.89073878,12264735.5887662,1679957.79870688,12264646.3819821,0.06330119616172457,B,FALSE,31,2025-05-21T07:45:00+10:00,TRUE,TRUE,RESOLVED,2,t2_node2
Line.ln6046143-1,LINE,l2989596,l2822873,1678050.63966510,12286115.4963701,1678337.47844937,12286162.9198582,0.000697555696380667,B,FALSE,31,2025-05-21T07:45:00+10:00,TRUE,TRUE,RESOLVED,2,t2_node2
Line.ln5803287-1,LINE,m1108328,l2875754,1670825.89367437,12272155.1732851,1670756.12241031,12272155.8081651,0.0036987872446560743,C,FALSE,31,2025-05-21T07:45:00+10:00,TRUE,TRUE,RESOLVED,2,t2_node3
Line.ln5589094-1,LINE,l2786204,m1209819,1659552.46876787,12277819.4989224,1659646.28355196,12278034.6536106,0.03999631513376032,C,FALSE,31,2025-05-21T07:45:00+10:00,TRUE,TRUE,RESOLVED,2,t2_node3
Line.ln5954983-1,LINE,p901972,m1009726,1689019.83826732,12281025.6470214,1688931.99954724,12280743.4531011,0.021152642950823856,A,FALSE,31,2025-05-21T07:45:00+10:00,TRUE,TRUE,RESOLVED,2,t2_node1
Line.ln5924696-2,LINE,m1047702,n1137001,1681564.41784437,12285031.1622891,1681444.53611626,12285007.2621291,0.0009551907680785156,A,FALSE,31,2025-05-21T07:45:00+10:00,TRUE,TRUE,RESOLVED,2,t2_node1
Line.ln6506311-4,LINE,l2767340,m3037449,1670221.52887381,12278552.9696431,1670227.61962582,12278554.7882671,0.0010932502799995477,C,FALSE,31,2025-05-21T07:45:00+10:00,TRUE,TRUE,RESOLVED,2,t2_node3
Line.ln5653493-1,LINE,m1047457,l2710546,1682465.64843721,12276271.3174169,1682545.27058129,12276376.129961,0.021200962094363524,B,FALSE,31,2025-05-21T07:45:00+10:00,TRUE,TRUE,RESOLVED,2,t2_node2
Line.ln5684836-1,LINE,l2674027,l2692633,1671159.21796268,12282665.0587349,1671210.48759473,12282881.7862871,0.3990780293129982,B,FALSE,31,2025-05-21T07:45:00+10:00,TRUE,TRUE,RESOLVED,1,t1_node2
Line.ln5715016-3,LINE,n1142108,l2674051,1669813.84580143,12272407.7244533,1669928.82461754,12272620.3560055,0.0009643516446202976,A,FALSE,31,2025-05-21T07:45:00+10:00,TRUE,TRUE,RESOLVED,2,t2_node1
Line.ln6138614-1,LINE,m1069135,r18242,1679197.94974617,12265429.3119028,1679355.35902632,12265257.6485427,0.06329589303301231,B,FALSE,31,2025-05-21T07:45:00+10:00,TRUE,TRUE,RESOLVED,2,t2_node2
Line.ln6077781-2,LINE,m1047534,n1136663,1680503.79960339,12282700.4113109,1680835.55512370,12282522.5425108,0.3485526836063793,A,FALSE,31,2025-05-21T07:45:00+10:00,TRUE,TRUE,RESOLVED,2,t2_node1
Line.ln5675121-1,LINE,m1108508,l3097861,1672862.33886027,12282375.0987986,1672862.46583627,12282075.0995663,0.00072269355923676,C,FALSE,31,2025-05-21T07:45:00+10:00,TRUE,TRUE,RESOLVED,2,t2_node3
Line.ln5773046-1,LINE,m1069560,m1069567,1677062.31172818,12286289.5886583,1676925.84939205,12286519.2595705,0.043132975007358784,B,FALSE,31,2025-05-21T07:45:00+10:00,TRUE,TRUE,RESOLVED,2,t2_node2
Line.ln6380809-2,LINE,l2973153,n1136998,1681517.26878833,12284293.5013604,1681517.02302833,12284328.0429284,0.09259052594625325,B,FALSE,31,2025-05-21T07:45:00+10:00,TRUE,TRUE,RESOLVED,2,t2_node2
Line.ln6018326-1,LINE,l2898515,m1166387,1662893.85040299,12276646.6707613,1662902.84112299,12276842.0212895,0.002176087341364348,C,FALSE,31,2025-05-21T07:45:00+10:00,TRUE,TRUE,RESOLVED,2,t2_node3
Line.ln5472356-1,LINE,m1047442,l3235250,1680495.82878738,12275473.1503762,1680659.93912353,12275606.7496083,0.0007101040669135559,B,FALSE,31,2025-05-21T07:45:00+10:00,TRUE,TRUE,RESOLVED,2,t2_node2
Line.ln6139641-1,LINE,m1142871,m1142874,1666908.56938273,12276397.9288731,1667024.59267883,12276444.9058971,0.4870147697364457,A,FALSE,31,2025-05-21T07:45:00+10:00,TRUE,TRUE,RESOLVED,2,t2_node1
Line.ln6018341-1,LINE,l2955081,m1108315,1670184.84919378,12272081.019301,1670289.66173787,12271788.5894768,0.2040412839348096,C,FALSE,31,2025-05-21T07:45:00+10:00,TRUE,TRUE,RESOLVED,2,t2_node3
Line.ln6017302-1,LINE,l2973162,m1026333,1684604.53048721,12260500.2387463,1684731.67851932,12260380.9017861,0.04858791833233262,B,FALSE,31,2025-05-21T07:45:00+10:00,TRUE,TRUE,RESOLVED,2,t2_node2
Line.ln6199505-1,LINE,m1009832,l2860479,1691225.10828537,12283805.79064,1691128.70073328,12283874.288048,0.0007043997947693094,B,FALSE,31,2025-05-21T07:45:00+10:00,TRUE,TRUE,RESOLVED,2,t2_node2
Line.ln5682327-1,LINE,m1026854,p901894,1685064.88811963,12284240.8513764,1685053.50123962,12284256.6045924,0.024185710138485302,A,FALSE,31,2025-05-21T07:45:00+10:00,TRUE,TRUE,RESOLVED,2,t2_node1
Line.ln6290243-1,LINE,m1026485,m1026492,1683719.90917438,12267867.8900811,1683569.18866224,12268022.9359693,0.0035734798635595625,B,FALSE,31,2025-05-21T07:45:00+10:00,TRUE,TRUE,RESOLVED,2,t2_node2
Line.x8223_48332_sw,LINE,d6413567-3_int,e182724,1676779.24126392,12267900.4579531,1676779.24126392,12267899.4579531,0.10467198475003485,B,FALSE,31,2025-05-21T07:45:00+10:00,TRUE,TRUE,RESOLVED,2,t2_node2
Line.ln6413567-3,LINE,n1139541,d6413567-3_int,1676737.23678388,12267924.8900172,1676779.24126392,12267900.4579531,0.1046719827311579,B,FALSE,31,2025-05-21T07:45:00+10:00,TRUE,TRUE,RESOLVED,2,t2_node2
Line.ln5591731-3,LINE,m4122658,l2933135,1670375.71869795,12280344.7771327,1670377.60695396,12280349.9176127,0.42500399413690204,A,FALSE,31,2025-05-21T07:45:00+10:00,TRUE,TRUE,RESOLVED,2,t2_node1
Line.ln5653470-1,LINE,m1026702,l2729414,1684961.36991154,12278175.7812907,1684914.02834349,12278019.0683306,0.0018440860679413398,C,FALSE,31,2025-05-21T07:45:00+10:00,TRUE,TRUE,RESOLVED,2,t2_node3
Line.ln6017316-1,LINE,l2729430,l2766742,1688907.23103521,12283538.3996637,1689253.13004354,12283624.4197598,0.04325253056378027,B,FALSE,31,2025-05-21T07:45:00+10:00,TRUE,TRUE,RESOLVED,2,t2_node2
Line.ln5926299-1,LINE,m1026972,l2860483,1683393.74469408,12289417.3557012,1683592.59730226,12289426.6986772,0.0035564899006717407,B,FALSE,31,2025-05-21T07:45:00+10:00,TRUE,TRUE,RESOLVED,2,t2_node2
Line.ln5683831-1,LINE,l2860490,l3104134,1679595.86795454,12264992.4202544,1679734.16120267,12264837.2310063,0.0632993829146526,B,FALSE,31,2025-05-21T07:45:00+10:00,TRUE,TRUE,RESOLVED,2,t2_node2
Line.ln6352700-1,LINE,m1089144,p827522,1673342.77098872,12269888.147875,1673343.60247672,12269896.610211,0.006503450845842396,A,FALSE,31,2025-05-21T07:45:00+10:00,TRUE,TRUE,RESOLVED,2,t2_node1
Line.ln6047570-1,LINE,m1089118,l3048208,1675318.01783856,12268725.4818899,1675263.47140651,12268587.2418898,0.0009468529403342585,A,FALSE,31,2025-05-21T07:45:00+10:00,TRUE,TRUE,RESOLVED,2,t2_node1
Line.ln5624342-1,LINE,m1108505,l2955047,1671030.94762656,12282090.0663504,1671072.93162660,12282264.0808145,0.4032740727658704,B,FALSE,31,2025-05-21T07:45:00+10:00,TRUE,TRUE,RESOLVED,1,t1_node2
Line.ln6259992-1,LINE,m1089148,l2766721,1674271.71102158,12270485.0088036,1674396.29905370,12270583.4889316,0.0016351778362011752,A,FALSE,31,2025-05-21T07:45:00+10:00,TRUE,TRUE,RESOLVED,2,t2_node1
Line.ln5841919-1,LINE,m1026745,l3029183,1683619.53669429,12278996.0544435,1683540.33643821,12279283.9704757,0.001070490852506021,B,FALSE,31,2025-05-21T07:45:00+10:00,TRUE,TRUE,RESOLVED,2,t2_node2
Line.ln6380811-1,LINE,l2710512,m1047828,1680663.76888354,12292514.5010481,1680462.49963535,12292942.2790965,0.0203230665911397,B,FALSE,31,2025-05-21T07:45:00+10:00,TRUE,TRUE,RESOLVED,2,t2_node2
Line.ln5683832-1,LINE,m1047342,l3197645,1679478.81246643,12264504.144286,1679398.77253036,12264275.9847978,0.0016055118113677755,A,FALSE,31,2025-05-21T07:45:00+10:00,TRUE,TRUE,RESOLVED,2,t2_node1
Line.ln6077778-1,LINE,m1069192,l3235253,1677244.55096035,12268205.1096654,1676977.34840010,12268191.9819854,0.0015900193229587487,A,FALSE,31,2025-05-21T07:45:00+10:00,TRUE,TRUE,RESOLVED,2,t2_node1
Line.ln5561442-2,LINE,l3214071,m1125952,1668519.39511223,12277397.451178,1668624.60087232,12277539.7011621,0.4846694244339203,A,FALSE,31,2025-05-21T07:45:00+10:00,TRUE,TRUE,RESOLVED,2,t2_node1
Line.ln6259983-1,LINE,m1027101,l2860480,1683432.09144611,12294748.9714502,1683651.82955832,12295141.7286985,0.001781586476501582,B,FALSE,31,2025-05-21T07:45:00+10:00,TRUE,TRUE,RESOLVED,2,t2_node2
Line.ln5865244-1,LINE,l2710517,m1026646,1684020.46136666,12275161.3587599,1683892.37944654,12275065.2420238,0.019900384431909546,A,FALSE,31,2025-05-21T07:45:00+10:00,TRUE,TRUE,RESOLVED,2,t2_node1
Line.ln6350555-1,LINE,m1069662,l2935547,1677688.53278476,12289931.1661337,1677823.82776089,12290079.4208538,0.001052086152819263,B,FALSE,31,2025-05-21T07:45:00+10:00,TRUE,TRUE,RESOLVED,2,t2_node2
Line.ln5714039-1,LINE,m1026931,l3216336,1685448.22866399,12286482.9485305,1685393.23167194,12286634.6602746,0.0070545427260772925,A,FALSE,31,2025-05-21T07:45:00+10:00,TRUE,TRUE,RESOLVED,2,t2_node1
Line.ln5889821-1,LINE,l3142049,m1108493,1670747.38154630,12281234.1702856,1670877.78180242,12281479.4510538,0.4172234766201569,A,FALSE,31,2025-05-21T07:45:00+10:00,TRUE,TRUE,RESOLVED,1,t1_node1
Line.ln5804791-1,LINE,m1069169,l3010556,1677028.11832015,12267722.969505,1677213.04043232,12267568.9394248,0.10467536940227969,B,FALSE,31,2025-05-21T07:45:00+10:00,TRUE,TRUE,RESOLVED,2,t2_node2
Line.ln5653486-1,LINE,l2991933,l3122837,1689024.56914732,12283162.3213274,1689289.87935557,12283227.5296474,0.00551445497967881,C,FALSE,31,2025-05-21T07:45:00+10:00,TRUE,TRUE,RESOLVED,2,t2_node3
Line.ln5926286-1,LINE,l3216336,l2691936,1685393.23167194,12286634.6602746,1685315.82136787,12286840.2180348,0.005450317810586251,A,FALSE,31,2025-05-21T07:45:00+10:00,TRUE,TRUE,RESOLVED,2,t2_node1
Line.ln6318859-1,LINE,l2897772,l3101814,1682428.46085318,12264828.1993263,1682482.56901323,12265005.3062705,0.000002437256892786602,A,FALSE,31,2025-05-21T07:45:00+10:00,TRUE,TRUE,RESOLVED,1,t1_node1
Line.ln5926316-1,LINE,l2766732,m1026485,1683690.74155836,12267833.5492171,1683719.90917438,12267867.8900811,0.014369875387562105,B,FALSE,31,2025-05-21T07:45:00+10:00,TRUE,TRUE,RESOLVED,2,t2_node2
Line.ln5591703-1,LINE,l2804269,l2989564,1677736.00952081,12289268.351413,1677872.26705694,12289419.7027092,0.003150189360015771,B,FALSE,31,2025-05-21T07:45:00+10:00,TRUE,TRUE,RESOLVED,2,t2_node2
Line.ln5531333-1,LINE,m1126016,l3120534,1669099.38871277,12282252.5915345,1668984.36484066,12282271.6829905,0.006570012731897713,A,FALSE,31,2025-05-21T07:45:00+10:00,TRUE,TRUE,RESOLVED,2,t2_node1
Line.ln6047581-1,LINE,m1026330,l2766726,1684976.72991155,12260148.7609859,1684879.06898346,12260163.1420419,0.0010711314517105272,B,FALSE,31,2025-05-21T07:45:00+10:00,TRUE,TRUE,RESOLVED,2,t2_node2
Line.ln6349077-1,LINE,p901912,l3195365,1681942.31070873,12281408.5411017,1681970.92126875,12281289.1386056,0.0000016747323318610434,B,FALSE,31,2025-05-21T07:45:00+10:00,TRUE,TRUE,RESOLVED,1,t1_node2
Line.ln6350574-1,LINE,m1108381,l3254237,1672182.50525964,12279302.0952758,1672395.81265184,12279173.2596916,0.01542389623938769,B,FALSE,31,2025-05-21T07:45:00+10:00,TRUE,TRUE,RESOLVED,2,t2_node2
Line.ln6320343-1,LINE,l2804262,l2841639,1684980.08043956,12284485.0917606,1684922.65042350,12284723.2700648,0.021627458752510736,A,FALSE,31,2025-05-21T07:45:00+10:00,TRUE,TRUE,RESOLVED,2,t2_node1
Line.ln81048100-5,LINE,n1230123,l2708744,1671048.03204258,12279313.0193078,1671031.94705057,12279458.4068279,0.059839427251619025,B,FALSE,31,2025-05-21T07:45:00+10:00,TRUE,TRUE,RESOLVED,2,t2_node2
Line.ln6348946-1,LINE,m1069519,p901927,1676772.49924791,12284646.2980327,1676746.89105589,12284654.9487848,0.0017404488658292886,B,FALSE,31,2025-05-21T07:45:00+10:00,TRUE,TRUE,RESOLVED,2,t2_node2
Line.ln5744351-1,LINE,l2897790,l2935566,1676070.70699126,12285735.7398258,1675918.76996712,12285561.6311536,0.001811406031159763,C,FALSE,31,2025-05-21T07:45:00+10:00,TRUE,TRUE,RESOLVED,2,t2_node3
Line.ln5472342-1,LINE,m1026931,l3216337,1685448.22866399,12286482.9485305,1685627.01906416,12286529.7494265,0.0009637070720982845,A,FALSE,31,2025-05-21T07:45:00+10:00,TRUE,TRUE,RESOLVED,2,t2_node1
Line.ln5621849-1,LINE,p901931,m1069548,1676193.60747137,12285903.9625459,1676184.21124736,12285891.1011059,0.004697860972673127,C,FALSE,31,2025-05-21T07:45:00+10:00,TRUE,TRUE,RESOLVED,2,t2_node3
Line.ln6379375-1,LINE,m1010013,l3120503,1689498.81631576,12294474.1749059,1689409.69964368,12294317.9166017,0.0009735999751255934,A,FALSE,31,2025-05-21T07:45:00+10:00,TRUE,TRUE,RESOLVED,2,t2_node1
Line.ln6028890-1,LINE,m1089145,l3215385,1673282.55569266,12270114.7959392,1673179.03748457,12270171.4313313,0.003599358368603319,B,FALSE,31,2025-05-21T07:45:00+10:00,TRUE,TRUE,RESOLVED,2,t2_node2
Line.ln6380822-1,LINE,m1026854,m1026852,1685064.88811963,12284240.8513764,1685494.41925603,12284211.4380003,0.10662035460716279,A,FALSE,31,2025-05-21T07:45:00+10:00,TRUE,TRUE,RESOLVED,2,t2_node1
Line.ln5835131-1,LINE,l2935549,m1069420,1677936.61112100,12276709.0610333,1678021.46795307,12276405.6703131,0.06912737977234656,B,FALSE,31,2025-05-21T07:45:00+10:00,TRUE,TRUE,RESOLVED,2,t2_node2
Line.ln5803262-7,LINE,l3157708,n1137991,1682150.34245292,12282007.3681103,1682105.52402088,12281995.4979023,0.0007309013702179071,C,FALSE,31,2025-05-21T07:45:00+10:00,TRUE,TRUE,RESOLVED,2,t2_node3
Line.ln81048089-1,LINE,m1108413,m1108460,1670922.44458646,12279696.5933241,1671006.58461854,12280112.3332285,0.03430499025686377,A,FALSE,31,2025-05-21T07:45:00+10:00,TRUE,TRUE,RESOLVED,2,t2_node1
Line.ln6201699-1,LINE,p827532,m1047326,1680635.15832351,12264049.0418216,1680646.63121952,12264070.0379176,0.002564729786638285,A,FALSE,31,2025-05-21T07:45:00+10:00,TRUE,TRUE,RESOLVED,2,t2_node1
Line.ln5746548-1,LINE,e182732,m1026760,1684280.62699890,12279353.2829878,1684294.32402292,12279326.4582838,0.07076044526270159,A,FALSE,31,2025-05-21T07:45:00+10:00,TRUE,TRUE,RESOLVED,2,t2_node1
Line.ln5835174-1,LINE,l3048205,m1108361,1672681.70935610,12273857.2783747,1673033.38782043,12274395.2019592,0.045181212048571485,C,FALSE,31,2025-05-21T07:45:00+10:00,TRUE,TRUE,RESOLVED,2,t2_node3
Line.ln6505947-4,LINE,m3036169,l2673317,1684283.22386291,12275370.1441681,1684276.55147890,12275364.8398481,0.021838217128548013,A,FALSE,31,2025-05-21T07:45:00+10:00,TRUE,TRUE,RESOLVED,2,t2_node1
Line.ln5683833-1,LINE,l3178981,m1047368,1679483.51057844,12265673.7611831,1680001.70373092,12266158.8832315,0.0368099783308373,B,FALSE,31,2025-05-21T07:45:00+10:00,TRUE,TRUE,RESOLVED,2,t2_node2
Line.ln5561439-3,LINE,m1069519,n1136354,1676772.49924791,12284646.2980327,1676569.32945572,12285098.3899372,0.07127266611372016,B,FALSE,31,2025-05-21T07:45:00+10:00,TRUE,TRUE,RESOLVED,2,t2_node2
Line.ln6109190-1,LINE,l2879794,m1142811,1667181.89136698,12273382.6379903,1667254.28816705,12273298.8297342,0.005646987084618235,A,FALSE,31,2025-05-21T07:45:00+10:00,TRUE,TRUE,RESOLVED,2,t2_node1
Line.ln6258435-2,LINE,m1047702,n1137002,1681564.41784437,12285031.1622891,1681625.78002043,12285034.7176171,0.0031943793203506247,A,FALSE,31,2025-05-21T07:45:00+10:00,TRUE,TRUE,RESOLVED,2,t2_node1
Line.ln5804819-1,LINE,m1069565,l2785536,1677949.09982501,12286437.7286904,1677687.88152076,12286985.6219389,0.0010465770042975453,B,FALSE,31,2025-05-21T07:45:00+10:00,TRUE,TRUE,RESOLVED,2,t2_node2
Line.ln5593215-1,LINE,l3104114,m1009824,1690078.37164430,12283708.9489119,1690260.48799647,12283715.5107039,0.0386639055116883,B,FALSE,31,2025-05-21T07:45:00+10:00,TRUE,TRUE,RESOLVED,2,t2_node2
Line.ln5833717-1,LINE,l2745848,l2673308,1678806.03627381,12279608.4392121,1678670.75768168,12279476.6995639,0.08883872954190984,B,FALSE,31,2025-05-21T07:45:00+10:00,TRUE,TRUE,RESOLVED,2,t2_node2
Line.ln6199557-1,LINE,l2673308,l2991939,1678670.75768168,12279476.6995639,1678454.25131348,12279177.3311156,0.08620010990263004,B,FALSE,31,2025-05-21T07:45:00+10:00,TRUE,TRUE,RESOLVED,2,t2_node2
Line.ln5744332-1,LINE,l2916606,l2822864,1672566.00145199,12272884.6708858,1672728.06788415,12272763.3883257,0.001108216945246647,C,FALSE,31,2025-05-21T07:45:00+10:00,TRUE,TRUE,RESOLVED,2,t2_node3
Line.ln5558790-1,LINE,m1142851,196-31070,1665753.43184565,12275612.6396563,1665790.77507768,12275638.5591444,0.49248962802870583,A,FALSE,31,2025-05-21T07:45:00+10:00,TRUE,TRUE,RESOLVED,2,t2_node1
Line.ln6078692-1,LINE,m1209822,m1209823,1659859.03388816,12280203.1169726,1659908.21456021,12280383.4843328,0.038196286665655804,C,FALSE,31,2025-05-21T07:45:00+10:00,TRUE,TRUE,RESOLVED,2,t2_node3
Line.ln5956482-1,LINE,m1069550,m1069551,1677255.79857636,12285946.458546,1677269.34814437,12285947.740594,0.06113743111217228,B,FALSE,31,2025-05-21T07:45:00+10:00,TRUE,TRUE,RESOLVED,2,t2_node2
Line.ln5593225-1,LINE,l2860483,l3141397,1683592.59730226,12289426.6986772,1683839.49189449,12289462.7311892,0.0017790959393687428,B,FALSE,31,2025-05-21T07:45:00+10:00,TRUE,TRUE,RESOLVED,2,t2_node2
Line.ln6900591-26,LINE,l3649299,m3772794,1683806.10539846,12284479.5580646,1683806.06443846,12284492.2843366,0.012984416262695479,A,FALSE,31,2025-05-21T07:45:00+10:00,TRUE,TRUE,RESOLVED,2,t2_node1
Line.ln5952393-1,LINE,p895106,l3048887,1669809.06167343,12277941.1091625,1669938.61815355,12277965.1199145,0.007215542983727875,B,FALSE,31,2025-05-21T07:45:00+10:00,TRUE,TRUE,RESOLVED,2,t2_node2
Line.ln6350531-1,LINE,m1047824,m1047834,1682927.59122164,12292760.0603443,1683077.25906178,12294111.8796096,0.00710674591752742,B,FALSE,31,2025-05-21T07:45:00+10:00,TRUE,TRUE,RESOLVED,2,t2_node2
Line.ln5965099-10,LINE,m1069350,n1144668,1677448.77752054,12273394.8809343,1677440.31518453,12273307.5337342,0.04642626284223382,C,FALSE,31,2025-05-21T07:45:00+10:00,TRUE,TRUE,RESOLVED,2,t2_node3
Line.ln6047568-1,LINE,l2879072,m1047441,1679608.09861055,12275412.6401681,1680358.85854725,12275454.0712082,0.042890206092235324,B,FALSE,31,2025-05-21T07:45:00+10:00,TRUE,TRUE,RESOLVED,2,t2_node2
Line.ln5926292-1,LINE,m1108274,m1108269,1671984.65207545,12266599.1786559,1671944.85943542,12266402.0791358,0.0017437135764460116,B,FALSE,31,2025-05-21T07:45:00+10:00,TRUE,TRUE,RESOLVED,2,t2_node2
Line.ln6380806-1,LINE,l3235244,m1069398,1676947.16088007,12274704.2615435,1676745.12158389,12274662.2980234,0.004171831880166808,A,FALSE,31,2025-05-21T07:45:00+10:00,TRUE,TRUE,RESOLVED,2,t2_node1
Line.ln6341781-3,LINE,n1147862,l2685805,1688682.58591500,12284408.4187365,1688392.51538673,12284365.7220325,0.0016099740673621683,A,FALSE,31,2025-05-21T07:45:00+10:00,TRUE,TRUE,RESOLVED,2,t2_node1
Line.ln8979367-1,LINE,m1069247,m1069248,1676988.23556811,12272219.0381172,1676585.36529574,12272219.7303412,0.00433937439372429,A,FALSE,31,2025-05-21T07:45:00+10:00,TRUE,TRUE,RESOLVED,2,t2_node1
Line.ln6018340-1,LINE,l2786273,m1108278,1671680.42986717,12266654.319008,1671331.86436284,12266717.868448,0.003315532558702188,B,FALSE,31,2025-05-21T07:45:00+10:00,TRUE,TRUE,RESOLVED,2,t2_node2
Line.ln6380847-1,LINE,l3254238,m1047303,1681916.78034070,12262766.2196764,1682149.03173292,12262537.7611802,0.056044065597168576,B,FALSE,31,2025-05-21T07:45:00+10:00,TRUE,TRUE,RESOLVED,2,t2_node2
Line.ln8961797-1,LINE,m1047633,l2897554,1682257.56754102,12284060.7420642,1681954.21778074,12284332.0078564,0.006638608352572219,C,FALSE,31,2025-05-21T07:45:00+10:00,TRUE,TRUE,RESOLVED,2,t2_node3
Line.ln6077797-1,LINE,m1069627,l2897791,1678361.03864139,12288390.3697162,1678128.25886517,12288009.2983559,0.007051104351256382,B,FALSE,31,2025-05-21T07:45:00+10:00,TRUE,TRUE,RESOLVED,2,t2_node2
Line.ln6077773-1,LINE,m1089097,m1108270,1673144.27063653,12266422.0880958,1672873.36119628,12266453.4020158,0.007840067936745512,B,FALSE,31,2025-05-21T07:45:00+10:00,TRUE,TRUE,RESOLVED,2,t2_node2
Line.ln5837496-4,LINE,n1142101,l2936214,1670753.05450631,12281091.9243974,1670871.71153042,12281116.7092935,0.0016340380633516267,A,FALSE,31,2025-05-21T07:45:00+10:00,TRUE,TRUE,RESOLVED,2,t2_node1
Line.ln5623392-1,LINE,l3066810,l2897769,1677895.72075296,12277713.1708583,1678320.38174535,12277690.0284583,0.0055276608498173885,C,FALSE,31,2025-05-21T07:45:00+10:00,TRUE,TRUE,RESOLVED,2,t2_node3
Line.ln5624380-1,LINE,m1209758,m1209753,1658904.42012727,12273837.3595267,1658919.37052728,12273440.4407423,0.003818095295487684,B,FALSE,31,2025-05-21T07:45:00+10:00,TRUE,TRUE,RESOLVED,2,t2_node2
Line.ln6422809-2,LINE,m1047528,l2858166,1681546.65758836,12282578.9853908,1681560.42014837,12282586.8619988,0.1994143593614953,B,FALSE,31,2025-05-21T07:45:00+10:00,TRUE,TRUE,RESOLVED,2,t2_node2
Line.ln5799561-1,LINE,m1142843,l3081380,1665388.63798931,12275361.6900241,1665732.05891763,12275244.626344,0.2295433502570968,C,FALSE,31,2025-05-21T07:45:00+10:00,TRUE,TRUE,RESOLVED,2,t2_node3
Line.ln6229818-1,LINE,l2804272,l2841641,1677377.56856048,12285662.4705777,1677151.73150427,12285532.2218736,0.0010464289461598593,B,FALSE,31,2025-05-21T07:45:00+10:00,TRUE,TRUE,RESOLVED,2,t2_node2
Line.ln5593230-1,LINE,m1069393,m1069408,1678786.65809779,12274633.0198154,1678963.10148995,12274779.0094476,0.04890275264560356,B,FALSE,31,2025-05-21T07:45:00+10:00,TRUE,TRUE,RESOLVED,2,t2_node2
Line.ln5563901-3,LINE,n1142104,m1108500,1670995.07076253,12281860.2029261,1671018.08209055,12282007.6384463,0.41722340065099794,A,FALSE,31,2025-05-21T07:45:00+10:00,TRUE,TRUE,RESOLVED,1,t1_node1
Line.ln6320339-1,LINE,l3216348,l2841627,1680500.53099538,12272422.7813494,1681072.90603592,12272190.3661171,0.006000751351430788,A,FALSE,31,2025-05-21T07:45:00+10:00,TRUE,TRUE,RESOLVED,2,t2_node1
Line.ln5986927-1,LINE,m1026925,l2916599,1684568.60856717,12286219.5183862,1684517.53144712,12286221.1813622,0.0016022031934628251,A,FALSE,31,2025-05-21T07:45:00+10:00,TRUE,TRUE,RESOLVED,2,t2_node1
Line.ln6047567-1,LINE,m1047447,l2954349,1681057.32894790,12275849.6710806,1681167.74072401,12275985.9286167,0.0017755550454027459,B,FALSE,31,2025-05-21T07:45:00+10:00,TRUE,TRUE,RESOLVED,2,t2_node2
Line.ln5714047-1,LINE,l3235246,l2710512,1680706.12971558,12292264.7802158,1680663.76888354,12292514.5010481,0.02209883952046207,B,FALSE,31,2025-05-21T07:45:00+10:00,TRUE,TRUE,RESOLVED,2,t2_node2
Line.ln5563934-1,LINE,m1125911,l2711224,1668803.68208849,12272718.9098616,1668699.47165639,12272389.0507893,0.008772109334267851,B,FALSE,31,2025-05-21T07:45:00+10:00,TRUE,TRUE,RESOLVED,2,t2_node2
Line.ln6169249-3,LINE,n1147863,l3122817,1688576.93778691,12285249.3480173,1688587.09177092,12285259.5880173,0.0018275271711695417,C,FALSE,31,2025-05-21T07:45:00+10:00,TRUE,TRUE,RESOLVED,2,t2_node3
Line.ln6230800-1,LINE,m1186061,l2861223,1660752.19945699,12274351.8417032,1660845.98966508,12274277.5402631,0.001735935283419529,B,FALSE,31,2025-05-21T07:45:00+10:00,TRUE,TRUE,RESOLVED,2,t2_node2
Line.ln5985339-2,LINE,m1069130,l3085396,1678630.72337764,12265164.1532466,1678389.05937742,12265072.4315185,0.0025549822728610913,A,FALSE,31,2025-05-21T07:45:00+10:00,TRUE,TRUE,RESOLVED,2,t2_node1
Line.ln5898059-3,LINE,e182730,n1142109,1684128.51384676,12279697.4207161,1684200.64850283,12279729.1401402,0.0022490029741368705,A,FALSE,31,2025-05-21T07:45:00+10:00,TRUE,TRUE,RESOLVED,2,t2_node1
Line.ln5956457-2,LINE,m1069417,n1138597,1677957.64817702,12275198.9108879,1677957.12798502,12275094.6676878,0.06648496979863565,B,FALSE,31,2025-05-21T07:45:00+10:00,TRUE,TRUE,RESOLVED,2,t2_node2
Line.ln5865229-1,LINE,m1026987,m1026990,1683673.12875834,12290267.460022,1683626.95045430,12290448.8595741,0.0177638756975845,B,FALSE,31,2025-05-21T07:45:00+10:00,TRUE,TRUE,RESOLVED,2,t2_node2
Line.ln6018331-1,LINE,m1142832,l3160865,1666457.05911030,12275067.2900238,1666668.84688650,12275007.4556558,0.22021852684956233,C,FALSE,31,2025-05-21T07:45:00+10:00,TRUE,TRUE,RESOLVED,2,t2_node3
Line.ln6199535-1,LINE,l2673323,m1009809,1689109.81919540,12282531.1318228,1689340.32159562,12282575.4013908,0.0018336386759701738,C,FALSE,31,2025-05-21T07:45:00+10:00,TRUE,TRUE,RESOLVED,2,t2_node3
Line.ln5502538-1,LINE,l2822869,m1026808,1683087.89637379,12281507.6888778,1683329.78975002,12281312.2687176,0.07796819087786963,A,FALSE,31,2025-05-21T07:45:00+10:00,TRUE,TRUE,RESOLVED,2,t2_node1
Line.ln5742816-2,LINE,m1047825,m1069731,1679341.34251430,12292763.2265523,1679059.37797004,12292748.3785523,0.012499011494567929,B,FALSE,31,2025-05-21T07:45:00+10:00,TRUE,TRUE,RESOLVED,2,t2_node2
Line.ln6229803-3,LINE,n1140520,l2729410,1683314.34783000,12281312.2810056,1683239.78424594,12281312.3465416,0.0018338735164830893,C,FALSE,31,2025-05-21T07:45:00+10:00,TRUE,TRUE,RESOLVED,2,t2_node3
Line.ln5986930-1,LINE,m1026646,l3178978,1683892.37944654,12275065.2420238,1683373.01893406,12274683.3391755,0.016341436846930246,A,FALSE,31,2025-05-21T07:45:00+10:00,TRUE,TRUE,RESOLVED,2,t2_node1
Line.ln6350532-1,LINE,m1069384,l3066805,1677339.72971244,12274550.6492553,1677217.98840033,12274500.4486793,0.0016017147917220102,A,FALSE,31,2025-05-21T07:45:00+10:00,TRUE,TRUE,RESOLVED,2,t2_node1
Line.ln5588016-3,LINE,l2710546,m4362181,1682545.27058129,12276376.129961,1682613.89496535,12276426.2281371,0.0194120478386726,B,FALSE,31,2025-05-21T07:45:00+10:00,TRUE,TRUE,RESOLVED,2,t2_node2
Line.ln5623409-1,LINE,m1047319,m1047318,1682933.17816565,12263661.5520292,1683176.09963788,12263654.8919332,0.0036433326402703983,C,FALSE,31,2025-05-21T07:45:00+10:00,TRUE,TRUE,RESOLVED,2,t2_node3
Line.ln6350560-1,LINE,l3216358,m1026826,1686160.94904866,12283320.3204315,1686150.59026465,12283170.4887514,0.019562421229760894,A,FALSE,31,2025-05-21T07:45:00+10:00,TRUE,TRUE,RESOLVED,2,t2_node1
Line.ln5472347-1,LINE,m1108274,m1108276,1671984.65207545,12266599.1786559,1671814.04138729,12266630.09936,0.005056432362738349,B,FALSE,31,2025-05-21T07:45:00+10:00,TRUE,TRUE,RESOLVED,2,t2_node2
Line.ln6290199-1,LINE,m1089198,m1089201,1674139.93860546,12282933.9611351,1674661.10954995,12283190.4280794,0.3876233457362089,B,FALSE,31,2025-05-21T07:45:00+10:00,TRUE,TRUE,RESOLVED,1,t1_node2
Line.ln6409775-3,LINE,m1047763,n1136027,1681515.95806833,12288479.5109643,1681471.48370029,12288439.9599883,0.010885530292653356,A,FALSE,31,2025-05-21T07:45:00+10:00,TRUE,TRUE,RESOLVED,2,t2_node1
Line.ln5591811-1,LINE,l3101827,m1108540,1670851.32983440,12283180.8065754,1670694.91997825,12283645.5305438,0.013601885716486154,C,FALSE,31,2025-05-21T07:45:00+10:00,TRUE,TRUE,RESOLVED,2,t2_node3
Line.ln6229808-1,LINE,m1026335,l2804259,1684642.38162324,12260391.3793542,1684489.64997510,12260220.371354,0.001614627478564718,A,FALSE,31,2025-05-21T07:45:00+10:00,TRUE,TRUE,RESOLVED,2,t2_node1
Line.ln5651985-3,LINE,n1136357,l2897790,1676148.09271933,12285841.6623859,1676070.70699126,12285735.7398258,0.0036165782185632734,C,FALSE,31,2025-05-21T07:45:00+10:00,TRUE,TRUE,RESOLVED,2,t2_node3
Line.ln6047577-1,LINE,m1047513,m1047507,1682243.46910901,12282032.0301263,1682438.79506119,12281914.2619342,0.15655614424742217,A,FALSE,31,2025-05-21T07:45:00+10:00,TRUE,TRUE,RESOLVED,2,t2_node1
Line.ln5528574-2,LINE,m1142863,n1141480,1666137.32944601,12275880.7802006,1666147.85207002,12275869.9380886,0.002182542225353122,C,FALSE,31,2025-05-21T07:45:00+10:00,TRUE,TRUE,RESOLVED,2,t2_node3
Line.ln5896827-1,LINE,m1125916,l2879767,1668880.59268056,12272899.7154938,1669054.84880872,12273046.0491899,0.0014009421444458373,B,FALSE,31,2025-05-21T07:45:00+10:00,TRUE,TRUE,RESOLVED,2,t2_node2
Line.ln5774451-1,LINE,l3066809,m1069487,1678254.39928129,12280532.2305729,1678138.90846518,12280706.1180611,0.01583593506503796,C,FALSE,31,2025-05-21T07:45:00+10:00,TRUE,TRUE,RESOLVED,2,t2_node3
Line.ln5504876-1,LINE,m1142818,p829965,1667486.72797526,12273985.1882628,1667447.46781523,12273768.4689026,0.015028694395517184,A,FALSE,31,2025-05-21T07:45:00+10:00,TRUE,TRUE,RESOLVED,2,t2_node1
Line.ln5860423-4,LINE,q14733,m1047568,1679834.52139476,12283143.7102553,1679834.52139476,12283141.7102553,0.35408556838703364,A,FALSE,31,2025-05-21T07:45:00+10:00,TRUE,TRUE,RESOLVED,2,t2_node1
Line.ln6138613-1,LINE,m1047326,m1047322,1680646.63121952,12264070.0379176,1680626.80248350,12263966.5279015,0.0016038454314638083,A,FALSE,31,2025-05-21T07:45:00+10:00,TRUE,TRUE,RESOLVED,2,t2_node1
Line.ln6077771-1,LINE,m1009824,l2954338,1690260.48799647,12283715.5107039,1690361.24140457,12283717.3989599,0.033019415370217325,B,FALSE,31,2025-05-21T07:45:00+10:00,TRUE,TRUE,RESOLVED,2,t2_node2
Line.ln6138636-1,LINE,m1047409,l2841648,1680647.40945952,12272800.0516217,1680243.22027514,12272898.4703098,0.0019428366136162833,A,FALSE,31,2025-05-21T07:45:00+10:00,TRUE,TRUE,RESOLVED,2,t2_node1
Line.ln6199512-1,LINE,m1089177,l2729406,1674791.10020607,12277941.0395305,1674339.99953365,12277937.7504425,0.002970977628312751,C,FALSE,31,2025-05-21T07:45:00+10:00,TRUE,TRUE,RESOLVED,2,t2_node3
Line.ln6047564-1,LINE,m1026951,l2954347,1686938.70981738,12288132.780468,1686723.66162518,12288171.131316,0.003515611778372011,B,FALSE,31,2025-05-21T07:45:00+10:00,TRUE,TRUE,RESOLVED,2,t2_node2
Line.ln6258460-3,LINE,m4122657,l3027124,1663613.83709166,12283062.1946073,1664066.69085208,12282739.970479,0.001823200399812965,C,FALSE,31,2025-05-21T07:45:00+10:00,TRUE,TRUE,RESOLVED,2,t2_node3
Line.ln5683810-1,LINE,m1069419,m1069418,1678057.05809711,12275633.8200723,1678008.31160106,12275482.3786642,0.06913403919909059,B,FALSE,31,2025-05-21T07:45:00+10:00,TRUE,TRUE,RESOLVED,2,t2_node2
Line.ln5852082-1,LINE,m1026824,p859694,1688712.23276303,12283078.7875033,1688733.36402705,12283085.3943513,0.011020479858083522,C,FALSE,31,2025-05-21T07:45:00+10:00,TRUE,TRUE,RESOLVED,2,t2_node3
Line.ln6380816-1,LINE,m1047453,l2691948,1682152.36178092,12276053.0415767,1682227.05643699,12275837.2479125,0.0010655837850424735,B,FALSE,31,2025-05-21T07:45:00+10:00,TRUE,TRUE,RESOLVED,2,t2_node2
Line.ln6108138-2,LINE,p860892,n1139543,1676184.59627136,12268914.7990101,1676219.80548740,12268914.9014101,0.005804073568276561,C,FALSE,31,2025-05-21T07:45:00+10:00,TRUE,TRUE,RESOLVED,2,t2_node3
Line.ln6167732-2,LINE,m1089205,n1134472,1674849.17329412,12283336.6921435,1674840.97310211,12283383.3742556,0.0015890877964167293,A,FALSE,31,2025-05-21T07:45:00+10:00,TRUE,TRUE,RESOLVED,2,t2_node1
Line.ln6229831-1,LINE,l2710542,l2729430,1688791.42073111,12283531.3422557,1688907.23103521,12283538.3996637,0.0450114231737212,B,FALSE,31,2025-05-21T07:45:00+10:00,TRUE,TRUE,RESOLVED,2,t2_node2
Line.ln6504020-2,LINE,m3032980,m3032977,1660848.21788908,12274981.2371597,1661674.09027385,12275145.1140239,0.6761039473206802,A,FALSE,31,2025-05-21T07:45:00+10:00,TRUE,TRUE,RESOLVED,2,t2_node1
Line.ln81354561-2,LINE,m3763618,p1121282,1683094.81042180,12283634.3976158,1683084.92267779,12283641.9055838,0.004925690290689925,C,FALSE,31,2025-05-21T07:45:00+10:00,TRUE,TRUE,RESOLVED,2,t2_node3
Line.ln5654476-1,LINE,l2917330,l2861222,1667424.98896721,12273101.218214,1667615.80931938,12272877.8920058,0.002430392743947191,A,FALSE,31,2025-05-21T07:45:00+10:00,TRUE,TRUE,RESOLVED,2,t2_node1
Line.ln6987572-4,LINE,m1047490,p1164481,1681510.43256432,12280731.3821891,1681492.43883631,12280625.750445,0.02833658816537761,A,FALSE,31,2025-05-21T07:45:00+10:00,TRUE,TRUE,RESOLVED,2,t2_node1
Line.ln6260025-1,LINE,m1069356,m1069363,1676765.28619191,12273446.6666623,1676550.55748771,12273491.1533184,0.0018464927319644055,C,FALSE,31,2025-05-21T07:45:00+10:00,TRUE,TRUE,RESOLVED,2,t2_node3
Line.ln5926291-1,LINE,m1069418,m1069417,1678008.31160106,12275482.3786642,1677957.64817702,12275198.9108879,0.06913606784407587,B,FALSE,31,2025-05-21T07:45:00+10:00,TRUE,TRUE,RESOLVED,2,t2_node2
Line.ln8961800-1,LINE,p828359,l2878848,1681847.24254864,12283867.165104,1682237.86987700,12283750.6379999,0.018274364359990716,C,FALSE,31,2025-05-21T07:45:00+10:00,TRUE,TRUE,RESOLVED,2,t2_node3
Line.ln6437757-1,LINE,m1047486,l3177665,1680078.45867499,12280409.2195008,1680138.45688305,12280408.9778368,0.0024129662920108594,A,FALSE,31,2025-05-21T07:45:00+10:00,TRUE,TRUE,RESOLVED,2,t2_node1
Line.ln5594245-1,LINE,m1108278,l2805036,1671331.86436284,12266717.868448,1671118.61841065,12266761.2491841,0.0006942121720006506,B,FALSE,31,2025-05-21T07:45:00+10:00,TRUE,TRUE,RESOLVED,2,t2_node2
Line.ln5957492-1,LINE,l2692654,m1125929,1668598.41104830,12273383.6906623,1668601.65508030,12273390.7644543,0.0024172711056335344,A,FALSE,31,2025-05-21T07:45:00+10:00,TRUE,TRUE,RESOLVED,2,t2_node1
Line.ln5956464-1,LINE,m1047669,m1047672,1681515.45835633,12284547.2895206,1681515.40920433,12284558.4265447,0.09259197381857343,B,FALSE,31,2025-05-21T07:45:00+10:00,TRUE,TRUE,RESOLVED,2,t2_node2
Line.ln6171683-1,LINE,m1125919,p829961,1668479.74173619,12273089.388966,1668492.55812020,12273121.178022,0.0033800565479536315,A,FALSE,31,2025-05-21T07:45:00+10:00,TRUE,TRUE,RESOLVED,2,t2_node1
Line.ln5625715-1,LINE,m1142819,p829960,1667321.81072711,12274167.738791,1667326.98807112,12274174.140839,0.002441881144425218,B,FALSE,31,2025-05-21T07:45:00+10:00,TRUE,TRUE,RESOLVED,2,t2_node2
Line.ln5746706-2,LINE,p829979,m3036172,1660174.23337645,12274625.5323274,1660169.01916845,12274518.8110473,0.007632074329648689,B,FALSE,31,2025-05-21T07:45:00+10:00,TRUE,TRUE,RESOLVED,2,t2_node2
Line.ln5653491-1,LINE,m1026883,m1026898,1683254.59947795,12285061.9314411,1683255.23845395,12285264.1181933,0.0021922073660503054,C,FALSE,31,2025-05-21T07:45:00+10:00,TRUE,TRUE,RESOLVED,2,t2_node3
Line.ln5472361-1,LINE,m1089143,l3141400,1673259.81060464,12269872.861603,1673040.58039644,12269650.5880668,0.0006510982600720464,A,FALSE,31,2025-05-21T07:45:00+10:00,TRUE,TRUE,RESOLVED,2,t2_node1
Line.ln5683856-2,LINE,m1069469,n1139263,1678185.59467323,12278797.9145393,1678158.67985720,12278801.3797553,0.0016038426874362534,A,FALSE,31,2025-05-21T07:45:00+10:00,TRUE,TRUE,RESOLVED,2,t2_node1
Line.ln5565091-1,LINE,m1069481,p827507,1678870.26974587,12279668.8183481,1678887.77195388,12279641.8257081,0.0022006536462713146,C,FALSE,31,2025-05-21T07:45:00+10:00,TRUE,TRUE,RESOLVED,2,t2_node3
Line.ln5653466-1,LINE,m1026377,l3048210,1684465.36069508,12262175.4290198,1684759.69106335,12262471.5206681,0.002427704371924889,A,FALSE,31,2025-05-21T07:45:00+10:00,TRUE,TRUE,RESOLVED,2,t2_node1
Line.ln5534966-2,LINE,e182722,n1138596,1677980.55710504,12274468.2582153,1677939.74865700,12274484.2244233,0.01394806868497072,A,FALSE,31,2025-05-21T07:45:00+10:00,TRUE,TRUE,RESOLVED,2,t2_node1
Line.ln6409762-1,LINE,m1026331,l3214055,1684841.52914343,12260276.83881,1684944.08888752,12260448.5308422,0.0010892678942113253,C,FALSE,31,2025-05-21T07:45:00+10:00,TRUE,TRUE,RESOLVED,2,t2_node3
Line.ln6109158-1,LINE,m1108295,l2936279,1670977.53169051,12270559.9205476,1671251.64010677,12270541.4107236,0.14128857435287415,B,FALSE,31,2025-05-21T07:45:00+10:00,TRUE,TRUE,RESOLVED,2,t2_node2
Line.ln5835145-1,LINE,m1026704,l2841634,1683929.95615058,12278196.4619947,1683958.07928660,12277659.4886822,0.0026727491432193932,B,FALSE,31,2025-05-21T07:45:00+10:00,TRUE,TRUE,RESOLVED,2,t2_node2
Line.ln5774493-1,LINE,m1047386,m1047379,1681391.07102821,12266801.4391361,1681294.33989212,12266504.8682558,0.006357568564362153,B,FALSE,31,2025-05-21T07:45:00+10:00,TRUE,TRUE,RESOLVED,2,t2_node2
Line.ln5835143-1,LINE,m1089118,m1089115,1675318.01783856,12268725.4818899,1675802.91870301,12268510.4582737,0.10466484738690705,B,FALSE,31,2025-05-21T07:45:00+10:00,TRUE,TRUE,RESOLVED,2,t2_node2
Line.ln5926315-1,LINE,m1026486,m1026488,1683755.14296642,12267885.6667211,1683786.78866244,12267901.6288331,0.0010609698903720163,B,FALSE,31,2025-05-21T07:45:00+10:00,TRUE,TRUE,RESOLVED,2,t2_node2
Line.ln5895786-1,LINE,m1026364,l3010570,1684862.14021545,12261536.7602192,1685021.18789559,12261651.3908753,0.0009704486401617906,A,FALSE,31,2025-05-21T07:45:00+10:00,TRUE,TRUE,RESOLVED,2,t2_node1
Line.ln81048102-5,LINE,p904451,221-282819,1670925.51249047,12279304.5487798,1670939.56177048,12279310.6968758,0.04024615389182429,A,FALSE,31,2025-05-21T07:45:00+10:00,TRUE,TRUE,RESOLVED,2,t2_node1
Line.ln5861084-1,LINE,m1125968,p895107,1669654.47863328,12277912.9204905,1669651.56228128,12277885.3462184,0.006394689045228966,C,FALSE,31,2025-05-21T07:45:00+10:00,TRUE,TRUE,RESOLVED,2,t2_node3
Line.ln5774455-2,LINE,m1047672,n1136999,1681515.40920433,12284558.4265447,1681462.83704428,12284557.4435047,0.0031872301564438367,A,FALSE,31,2025-05-21T07:45:00+10:00,TRUE,TRUE,RESOLVED,2,t2_node1
Line.ln6108132-1,LINE,m1069412,l2879061,1679160.11909014,12274970.9398157,1678968.52868996,12275161.2317839,0.0007067185701411964,B,FALSE,31,2025-05-21T07:45:00+10:00,TRUE,TRUE,RESOLVED,2,t2_node2
Line.ln6077775-1,LINE,m1026947,m1026946,1687145.70936957,12287843.1809797,1686942.17093738,12287436.3785473,0.0028145541299174903,B,FALSE,31,2025-05-21T07:45:00+10:00,TRUE,TRUE,RESOLVED,2,t2_node2
Line.ln5591718-1,LINE,m1142880,l2891575,1665463.39408538,12286465.3316344,1665720.21328562,12286266.9172983,0.0010912902569144979,C,FALSE,31,2025-05-21T07:45:00+10:00,TRUE,TRUE,RESOLVED,2,t2_node3
Line.ln5653461-1,LINE,m1026848,m1026847,1687397.40856981,12284147.5936483,1687613.34969001,12284146.3156963,0.0016076561598422098,A,FALSE,31,2025-05-21T07:45:00+10:00,TRUE,TRUE,RESOLVED,2,t2_node1
Line.ln6290229-1,LINE,l2897793,m1069521,1678887.51800188,12284878.328241,1678926.93790592,12284952.441265,0.005919093369640206,A,FALSE,31,2025-05-21T07:45:00+10:00,TRUE,TRUE,RESOLVED,2,t2_node1
Line.ln5774463-1,LINE,m1069175,l3197637,1676614.90974377,12267998.9497932,1676744.97822389,12268213.6416334,0.0007248533671393739,C,FALSE,31,2025-05-21T07:45:00+10:00,TRUE,TRUE,RESOLVED,2,t2_node3
Line.ln6380814-1,LINE,m1047441,l3197635,1680358.85854725,12275454.0712082,1680179.97803509,12275365.9293841,0.001065131891422722,B,FALSE,31,2025-05-21T07:45:00+10:00,TRUE,TRUE,RESOLVED,2,t2_node2
Line.ln5895776-1,LINE,l2804257,l2860485,1687041.44159348,12292311.0486319,1687236.39890566,12292312.4617519,0.003873971947716305,B,FALSE,31,2025-05-21T07:45:00+10:00,TRUE,TRUE,RESOLVED,2,t2_node2
Line.ln6200439-1,LINE,l3235945,l2842330,1670501.28977007,12283848.602032,1670396.89092197,12283859.182,0.008164328688531279,C,FALSE,31,2025-05-21T07:45:00+10:00,TRUE,TRUE,RESOLVED,2,t2_node3
Line.ln6138601-1,LINE,l2804254,m1047752,1680124.10859503,12288039.9814919,1680141.61080305,12288000.0004359,0.0025656806533327155,A,FALSE,31,2025-05-21T07:45:00+10:00,TRUE,TRUE,RESOLVED,2,t2_node1
Line.ln5927421-1,LINE,m1166370,m1166364,1662674.57104278,12275313.9019921,1662681.79638679,12275200.3035279,0.001814544968454947,C,FALSE,31,2025-05-21T07:45:00+10:00,TRUE,TRUE,RESOLVED,2,t2_node3
Line.ln5532748-5,LINE,m1047592,m3763619,1683001.31922171,12283524.2602717,1683122.47480583,12283575.4684637,0.15017722228835487,A,FALSE,31,2025-05-21T07:45:00+10:00,TRUE,TRUE,RESOLVED,2,t2_node1
Line.ln6506318-4,LINE,m3037540,l2710509,1672900.66103631,12274857.1488396,1672890.05239630,12274859.9300236,0.0029576104740432364,C,FALSE,31,2025-05-21T07:45:00+10:00,TRUE,TRUE,RESOLVED,2,t2_node3
Line.ln6288856-3,LINE,l2763072,m4118754,1686387.40869687,12258785.6080887,1686556.63903302,12258616.7382005,0.03358382998483495,B,FALSE,31,2025-05-21T07:45:00+10:00,TRUE,TRUE,RESOLVED,2,t2_node2
Line.ln5653452-1,LINE,m1089196,m1089198,1673816.05150116,12282799.751599,1674139.93860546,12282933.9611351,0.38762358231884714,B,FALSE,31,2025-05-21T07:45:00+10:00,TRUE,TRUE,RESOLVED,1,t1_node2
Line.ln6290205-1,LINE,m1047484,l3010560,1679770.02168270,12280300.0406207,1679598.33784254,12280209.9982526,0.09058434768086795,B,FALSE,31,2025-05-21T07:45:00+10:00,TRUE,TRUE,RESOLVED,2,t2_node2
Line.ln6350547-1,LINE,l3254219,l3254220,1679933.89035486,12264838.7219503,1679957.07781088,12265047.9702065,0.0018197599396044865,C,FALSE,31,2025-05-21T07:45:00+10:00,TRUE,TRUE,RESOLVED,2,t2_node3
Line.ln6229800-1,LINE,m1026648,m1026647,1684613.95538321,12275753.2553365,1684543.42635915,12275597.1772563,0.023460041082248587,A,FALSE,31,2025-05-21T07:45:00+10:00,TRUE,TRUE,RESOLVED,2,t2_node1
Line.ln6138609-1,LINE,m1089112,l2691951,1676063.17035125,12268360.8109136,1676064.91934325,12268574.1920338,0.0439155922344913,C,FALSE,31,2025-05-21T07:45:00+10:00,TRUE,TRUE,RESOLVED,2,t2_node3
Line.wd701_48332_sw,LINE,228-1048090-1_int,193-51796,1671669.16996316,12279507.043308,1671669.16996316,12279506.043308,NA,NA,FALSE,31,2025-05-21T07:45:00+10:00,FALSE,FALSE,INACTIVE_TIE,NA,NA
Line.ln81048090-1,LINE,m1108433,228-1048090-1_int,1671662.98500315,12279882.8097723,1671669.16996316,12279507.043308,0.000042972961968706516,B,FALSE,31,2025-05-21T07:45:00+10:00,TRUE,TRUE,RESOLVED,1,t1_node2
Line.ln5683828-1,LINE,m1026327,l2841636,1685257.33867981,12259881.4396417,1685502.52933604,12259640.7300095,0.040015346647593916,B,FALSE,31,2025-05-21T07:45:00+10:00,TRUE,TRUE,RESOLVED,2,t2_node2
Line.ln8979256-1,LINE,m1089183,l2990826,1673151.09047654,12279553.204652,1673271.99210865,12279603.163564,0.003854203172007044,C,FALSE,31,2025-05-21T07:45:00+10:00,TRUE,TRUE,RESOLVED,2,t2_node3
Line.ln6506317-2,LINE,l2911069,l2948732,1693860.81875183,12284279.9886564,1694049.90240000,12283586.0975838,0.0010632803463612893,B,FALSE,31,2025-05-21T07:45:00+10:00,TRUE,TRUE,RESOLVED,2,t2_node2
Line.ln6078744-1,LINE,m1108260,m1108259,1671814.04138729,12259611.1200254,1671744.17181923,12259517.2888573,0.0027754313480739643,B,FALSE,31,2025-05-21T07:45:00+10:00,TRUE,TRUE,RESOLVED,2,t2_node2
Line.ln81018875-1,LINE,m1069312,p873800,1677489.26648058,12272919.3721978,1677473.23883256,12272901.4194298,0.005029652006807133,C,FALSE,31,2025-05-21T07:45:00+10:00,TRUE,TRUE,RESOLVED,2,t2_node3
Line.ln6078691-1,LINE,p901951,m1186078,1660482.06006474,12281760.6987981,1660735.00035298,12282276.7702225,0.029125776359081562,C,FALSE,31,2025-05-21T07:45:00+10:00,TRUE,TRUE,RESOLVED,2,t2_node3
Line.ln6258439-1,LINE,l2876797,r18241,1681538.80965235,12288092.352948,1681540.80850035,12288254.3374601,0.08910081337591821,B,FALSE,31,2025-05-21T07:45:00+10:00,TRUE,TRUE,RESOLVED,2,t2_node2
Line.ln6108164-1,LINE,l3254227,m1069550,1677114.69956823,12285880.6604019,1677255.79857636,12285946.458546,0.06674625392319739,B,FALSE,31,2025-05-21T07:45:00+10:00,TRUE,TRUE,RESOLVED,2,t2_node2
Line.ln5927379-2,LINE,m3037455,l3217052,1666805.10851863,12275185.0090639,1667038.85904685,12275194.8394639,0.0018255675783745294,C,FALSE,31,2025-05-21T07:45:00+10:00,TRUE,TRUE,RESOLVED,2,t2_node3
Line.ln6110365-1,LINE,p827500,l2822861,1677914.40670498,12276990.9518496,1678236.51204928,12276992.8810656,0.0032058745303538932,A,FALSE,31,2025-05-21T07:45:00+10:00,TRUE,TRUE,RESOLVED,2,t2_node1
Line.ln5773040-1,LINE,m1047724,m1047722,1681770.06981257,12286085.0508021,1681904.32850069,12286048.989618,0.08908575460046889,B,FALSE,31,2025-05-21T07:45:00+10:00,TRUE,TRUE,RESOLVED,2,t2_node2
Line.v7173_48332_sw,LINE,d5534969-2_int,e182729,1677259.94782437,12283958.4696161,1677259.94782437,12283957.4696161,0.38696578302869344,B,FALSE,31,2025-05-21T07:45:00+10:00,TRUE,TRUE,RESOLVED,1,t1_node2
Line.ln5534969-2,LINE,n1134477,d5534969-2_int,1677207.02750432,12283905.4831841,1677259.94782437,12283958.4696161,0.38696585029866454,B,FALSE,31,2025-05-21T07:45:00+10:00,TRUE,TRUE,RESOLVED,1,t1_node2
Line.ln6015891-1,LINE,m1166355,l2858200,1664268.32054827,12274859.4180236,1664186.51114019,12274511.1269513,0.00000487073800435828,A,FALSE,31,2025-05-21T07:45:00+10:00,TRUE,TRUE,RESOLVED,1,t1_node1
Line.ln5683816-1,LINE,m1047699,l2935554,1681521.15179633,12285016.4207851,1681518.37061233,12285279.5683053,0.09084012605882882,B,FALSE,31,2025-05-21T07:45:00+10:00,TRUE,TRUE,RESOLVED,2,t2_node2
Line.ln6199561-1,LINE,m1047292,l2766750,1683117.33842182,12261694.4889874,1683270.77867796,12261808.2881555,0.0027339171939898795,C,FALSE,31,2025-05-21T07:45:00+10:00,TRUE,TRUE,RESOLVED,2,t2_node3
...